/*--------------------------------*- C++ -*----------------------------------*\
  =========                 |
  \\      /  F ield         | OpenFOAM: The Open Source CFD Toolbox
   \\    /   O peration     | Website:  https://openfoam.org
    \\  /    A nd           | Version:  10
     \\/     M anipulation  |
\*---------------------------------------------------------------------------*/
FoamFile
{
    format      ascii;
    class       polyBoundaryMesh;
    location    "constant/polyMesh";
    object      boundary;
}
// * * * * * * * * * * * * * * * * * * * * * * * * * * * * * * * * * * * * * //

5
(
    xmin
    {
        type            wall;
        inGroups        List<word> 1(wall);
        nFaces          100;
        startFace       19800;
    }
    xmax
    {
        type            wall;
        inGroups        List<word> 1(wall);
        nFaces          100;
        startFace       19900;
    }
    ymin
    {
        type            wall;
        inGroups        List<word> 1(wall);
        nFaces          100;
        startFace       20000;
    }
    ymax
    {
        type            wall;
        inGroups        List<word> 1(wall);
        nFaces          100;
        startFace       20100;
    }
    frontAndBack
    {
        type            empty;
        inGroups        List<word> 1(empty);
        nFaces          20000;
        startFace       20200;
    }
)

// ************************************************************************* //
